
     RDKit          3D

 46 48  0  0  0  0  0  0  0  0999 V2000
    5.0860    0.0175   -2.7442 C   0  0  0  0  0  0  0  0  0  0  0  0
    6.2517   -0.0225   -2.0644 N   0  0  0  0  0  0  0  0  0  0  0  0
    6.2200    0.1386   -0.7216 C   0  0  0  0  0  0  0  0  0  0  0  0
    4.9762    0.3424   -0.1009 C   0  0  0  0  0  0  0  0  0  0  0  0
    3.8639    0.3604   -0.9264 C   0  0  0  0  0  0  0  0  0  0  0  0
    3.8367    0.1967   -2.2609 N   0  0  0  0  0  0  0  0  0  0  0  0
    2.8009    0.5682   -0.0879 N   0  0  0  0  0  0  0  0  0  0  0  0
    3.3018    0.6803    1.1830 C   0  0  0  0  0  0  0  0  0  0  0  0
    4.6106    0.5353    1.2154 N   0  0  0  0  0  0  0  0  0  0  0  0
    1.4128    0.6868   -0.5005 C   0  0  1  0  0  0  0  0  0  0  0  0
    0.8813   -0.5487   -1.2301 C   0  0  1  0  0  0  0  0  0  0  0  0
   -0.6110   -0.4114   -0.9725 C   0  0  1  0  0  0  0  0  0  0  0  0
   -0.6508    0.1024    0.4682 C   0  0  2  0  0  0  0  0  0  0  0  0
    0.5862    0.8347    0.6803 O   0  0  0  0  0  0  0  0  0  0  0  0
   -0.7509   -0.9838    1.5439 C   0  0  0  0  0  0  0  0  0  0  0  0
   -2.2344   -2.0460    1.4275 S   0  0  0  0  0  0  0  0  0  0  0  0
   -3.4375   -1.0763    2.4005 C   0  0  0  0  0  0  0  0  0  0  0  0
   -4.0296    0.1880    1.7707 C   0  0  0  0  0  0  0  0  0  0  0  0
   -4.8180   -0.0152    0.4659 C   0  0  1  0  0  0  0  0  0  0  0  0
   -5.7065    1.1973    0.1316 C   0  0  0  0  0  0  0  0  0  0  0  0
   -5.8689    1.6908   -0.9750 O   0  0  0  0  0  0  0  0  0  0  0  0
   -6.4171    1.6576    1.1795 O   0  0  0  0  0  0  0  0  0  0  0  0
   -3.9069   -0.2748   -0.6769 N   0  0  0  0  0  0  0  0  0  0  0  0
   -1.1853    0.5955   -1.8208 O   0  0  0  0  0  0  0  0  0  0  0  0
    1.1809   -0.6354   -2.6181 O   0  0  0  0  0  0  0  0  0  0  0  0
    7.4078    0.0958   -0.0291 N   0  0  0  0  0  0  0  0  0  0  0  0
    5.1649   -0.1143   -3.8202 H   0  0  0  0  0  0  0  0  0  0  0  0
    2.6735    0.8694    2.0451 H   0  0  0  0  0  0  0  0  0  0  0  0
    1.3360    1.5992   -1.1040 H   0  0  0  0  0  0  0  0  0  0  0  0
    1.2507   -1.4641   -0.7507 H   0  0  0  0  0  0  0  0  0  0  0  0
   -1.1484   -1.3423   -1.1669 H   0  0  0  0  0  0  0  0  0  0  0  0
   -1.4468    0.8375    0.5997 H   0  0  0  0  0  0  0  0  0  0  0  0
   -0.6939   -0.5360    2.5425 H   0  0  0  0  0  0  0  0  0  0  0  0
    0.1229   -1.6424    1.4757 H   0  0  0  0  0  0  0  0  0  0  0  0
   -4.2608   -1.7611    2.6346 H   0  0  0  0  0  0  0  0  0  0  0  0
   -2.9726   -0.8232    3.3597 H   0  0  0  0  0  0  0  0  0  0  0  0
   -3.2599    0.9546    1.6382 H   0  0  0  0  0  0  0  0  0  0  0  0
   -4.7010    0.6108    2.5296 H   0  0  0  0  0  0  0  0  0  0  0  0
   -5.4994   -0.8690    0.5648 H   0  0  0  0  0  0  0  0  0  0  0  0
   -6.9449    2.3912    0.7971 H   0  0  0  0  0  0  0  0  0  0  0  0
   -4.4732   -0.2480   -1.5325 H   0  0  0  0  0  0  0  0  0  0  0  0
   -3.5786   -1.2417   -0.5944 H   0  0  0  0  0  0  0  0  0  0  0  0
   -2.1507    0.5788   -1.6449 H   0  0  0  0  0  0  0  0  0  0  0  0
    2.1253   -0.4026   -2.7356 H   0  0  0  0  0  0  0  0  0  0  0  0
    8.2592   -0.0468   -0.5476 H   0  0  0  0  0  0  0  0  0  0  0  0
    7.3977    0.2234    0.9725 H   0  0  0  0  0  0  0  0  0  0  0  0
  1  2  2  0
  2  3  1  0
  3  4  2  0
  4  5  1  0
  5  6  2  0
  5  7  1  0
  7  8  1  0
  8  9  2  0
  7 10  1  0
 10 11  1  0
 11 12  1  0
 12 13  1  0
 13 14  1  0
 13 15  1  0
 15 16  1  0
 16 17  1  0
 17 18  1  0
 18 19  1  0
 19 20  1  0
 20 21  2  0
 20 22  1  0
 19 23  1  0
 12 24  1  0
 11 25  1  0
  3 26  1  0
  6  1  1  0
  9  4  1  0
 14 10  1  0
  1 27  1  0
  8 28  1  0
 10 29  1  6
 11 30  1  1
 12 31  1  1
 13 32  1  6
 15 33  1  0
 15 34  1  0
 17 35  1  0
 17 36  1  0
 18 37  1  0
 18 38  1  0
 19 39  1  1
 22 40  1  0
 23 41  1  0
 23 42  1  0
 24 43  1  0
 25 44  1  0
 26 45  1  0
 26 46  1  0
M  END
$$$$
