
     RDKit          3D

 49 51  0  0  0  0  0  0  0  0999 V2000
    2.8858   -2.8954   -0.0644 C   0  0  0  0  0  0  0  0  0  0  0  0
    1.9366   -1.6680    0.8618 S   0  0  0  0  0  0  0  0  0  0  0  0
    3.2038   -0.3438    0.8691 C   0  0  0  0  0  0  0  0  0  0  0  0
    3.5401    0.3042   -0.4726 C   0  0  0  0  0  0  0  0  0  0  0  0
    4.6923    1.3063   -0.3632 C   0  0  1  0  0  0  0  0  0  0  0  0
    6.0370    0.5136   -0.1528 C   0  0  0  0  0  0  0  0  0  0  0  0
    6.5571    0.0707   -1.2221 O   0  0  0  0  0  0  0  0  0  0  0  0
    6.4392    0.4415    1.0404 O   0  0  0  0  0  0  0  0  0  0  0  0
    4.7916    2.0678   -1.6553 N   0  0  0  0  0  0  0  0  0  0  0  0
    0.8754   -1.0893   -0.4969 C   0  0  0  0  0  0  0  0  0  0  0  0
   -0.3447   -2.0009   -0.6979 C   0  0  2  0  0  0  0  0  0  0  0  0
   -1.1628   -1.5711   -1.9162 C   0  0  2  0  0  0  0  0  0  0  0  0
   -2.0944   -0.5242   -1.3356 C   0  0  2  0  0  0  0  0  0  0  0  0
   -2.3924   -1.1219    0.0436 C   0  0  1  0  0  0  0  0  0  0  0  0
   -1.2327   -1.8735    0.4425 O   0  0  0  0  0  0  0  0  0  0  0  0
   -2.6919   -0.1159    1.0467 N   0  0  0  0  0  0  0  0  0  0  0  0
   -2.0436    0.1039    2.2329 C   0  0  0  0  0  0  0  0  0  0  0  0
   -2.6020    1.0774    2.9254 N   0  0  0  0  0  0  0  0  0  0  0  0
   -3.6551    1.5079    2.1465 C   0  0  0  0  0  0  0  0  0  0  0  0
   -3.7267    0.7793    0.9710 C   0  0  0  0  0  0  0  0  0  0  0  0
   -4.6139    0.9282   -0.0308 N   0  0  0  0  0  0  0  0  0  0  0  0
   -5.4919    1.9147    0.2596 C   0  0  0  0  0  0  0  0  0  0  0  0
   -5.5465    2.6990    1.3573 N   0  0  0  0  0  0  0  0  0  0  0  0
   -4.6211    2.5117    2.3270 C   0  0  0  0  0  0  0  0  0  0  0  0
   -4.6682    3.3147    3.4432 N   0  0  0  0  0  0  0  0  0  0  0  0
   -3.2463   -0.3683   -2.1707 O   0  0  0  0  0  0  0  0  0  0  0  0
   -1.9486   -2.6693   -2.4057 O   0  0  0  0  0  0  0  0  0  0  0  0
    3.2133   -2.5223   -1.0352 H   0  0  0  0  0  0  0  0  0  0  0  0
    2.2578   -3.7764   -0.2192 H   0  0  0  0  0  0  0  0  0  0  0  0
    3.7571   -3.1886    0.5268 H   0  0  0  0  0  0  0  0  0  0  0  0
    2.8209    0.4252    1.5497 H   0  0  0  0  0  0  0  0  0  0  0  0
    4.0890   -0.7788    1.3422 H   0  0  0  0  0  0  0  0  0  0  0  0
    3.7858   -0.4557   -1.2217 H   0  0  0  0  0  0  0  0  0  0  0  0
    2.6570    0.8400   -0.8415 H   0  0  0  0  0  0  0  0  0  0  0  0
    4.5274    2.0199    0.4509 H   0  0  0  0  0  0  0  0  0  0  0  0
    5.5780    2.7094   -1.5257 H   0  0  0  0  0  0  0  0  0  0  0  0
    5.2168    1.3717   -2.2917 H   0  0  0  0  0  0  0  0  0  0  0  0
    1.4533   -1.0384   -1.4234 H   0  0  0  0  0  0  0  0  0  0  0  0
    0.5494   -0.0819   -0.2179 H   0  0  0  0  0  0  0  0  0  0  0  0
   -0.0491   -3.0531   -0.7683 H   0  0  0  0  0  0  0  0  0  0  0  0
   -0.5632   -1.2048   -2.7544 H   0  0  0  0  0  0  0  0  0  0  0  0
   -1.5833    0.4428   -1.2575 H   0  0  0  0  0  0  0  0  0  0  0  0
   -3.2517   -1.8031    0.0193 H   0  0  0  0  0  0  0  0  0  0  0  0
   -1.1772   -0.4716    2.5418 H   0  0  0  0  0  0  0  0  0  0  0  0
   -6.2557    2.1051   -0.4896 H   0  0  0  0  0  0  0  0  0  0  0  0
   -3.9640    3.1924    4.1579 H   0  0  0  0  0  0  0  0  0  0  0  0
   -5.3746    4.0292    3.4944 H   0  0  0  0  0  0  0  0  0  0  0  0
   -3.8767    0.1908   -1.6655 H   0  0  0  0  0  0  0  0  0  0  0  0
   -2.6864   -2.2512   -2.8965 H   0  0  0  0  0  0  0  0  0  0  0  0
  2  1  1  6
  2  3  1  0
  3  4  1  0
  4  5  1  0
  5  6  1  0
  6  7  2  0
  6  8  1  0
  5  9  1  0
  2 10  1  0
 10 11  1  0
 11 12  1  0
 12 13  1  0
 13 14  1  0
 14 15  1  0
 14 16  1  0
 16 17  1  0
 17 18  2  0
 18 19  1  0
 19 20  1  0
 20 21  2  0
 21 22  1  0
 22 23  2  0
 23 24  1  0
 24 25  1  0
 13 26  1  0
 12 27  1  0
 15 11  1  0
 20 16  1  0
 24 19  2  0
  1 28  1  0
  1 29  1  0
  1 30  1  0
  3 31  1  0
  3 32  1  0
  4 33  1  0
  4 34  1  0
  5 35  1  1
  9 36  1  0
  9 37  1  0
 10 38  1  0
 10 39  1  0
 11 40  1  6
 12 41  1  6
 13 42  1  1
 14 43  1  6
 17 44  1  0
 22 45  1  0
 25 46  1  0
 25 47  1  0
 26 48  1  0
 27 49  1  0
M  CHG  2   2   1   8  -1
M  END
$$$$
