
     RDKit          3D

 80 83  0  0  0  0  0  0  0  0999 V2000
   -0.8109   -1.9932   -3.5093 C   0  0  0  0  0  0  0  0  0  0  0  0
   -1.8037   -2.1630   -2.3526 C   0  0  0  0  0  0  0  0  0  0  0  0
   -1.1733   -2.9861   -1.2231 C   0  0  0  0  0  0  0  0  0  0  0  0
   -2.3629   -0.8441   -1.9913 N   0  0  0  0  0  0  0  0  0  0  0  0
   -1.7656   -0.1388   -0.8488 C   0  0  0  0  0  0  0  0  0  0  0  0
   -0.3633    0.4087   -1.1330 C   0  0  0  0  0  0  0  0  0  0  0  0
    0.1165    1.2859    0.0220 C   0  0  0  0  0  0  0  0  0  0  0  0
    1.4536    1.7927   -0.2164 N   0  0  0  0  0  0  0  0  0  0  0  0
    2.5766    1.0730    0.1383 C   0  0  0  0  0  0  0  0  0  0  0  0
    2.5014   -0.0242    0.6756 O   0  0  0  0  0  0  0  0  0  0  0  0
    3.7274    1.7549   -0.1915 N   0  0  0  0  0  0  0  0  0  0  0  0
    5.0613    1.3419   -0.0003 C   0  0  0  0  0  0  0  0  0  0  0  0
    5.4310    0.1257    0.5663 C   0  0  0  0  0  0  0  0  0  0  0  0
    6.7844   -0.2121    0.7213 C   0  0  0  0  0  0  0  0  0  0  0  0
    7.8099    0.6547    0.3146 C   0  0  0  0  0  0  0  0  0  0  0  0
    7.4193    1.8790   -0.2563 C   0  0  0  0  0  0  0  0  0  0  0  0
    6.0690    2.2169   -0.4113 C   0  0  0  0  0  0  0  0  0  0  0  0
    9.3011    0.3122    0.4713 C   0  0  0  0  0  0  0  0  0  0  0  0
    9.9853    1.3692    1.3650 C   0  0  0  0  0  0  0  0  0  0  0  0
    9.9801    0.3035   -0.9153 C   0  0  0  0  0  0  0  0  0  0  0  0
    9.5608   -1.0682    1.1159 C   0  0  0  0  0  0  0  0  0  0  0  0
   -3.8441   -0.8547   -1.9270 C   0  0  0  0  0  0  0  0  0  0  0  0
   -4.5077   -1.6716   -0.7990 C   0  0  2  0  0  0  0  0  0  0  0  0
   -6.0300   -1.6779   -0.9271 C   0  0  2  0  0  0  0  0  0  0  0  0
   -6.4727   -2.0153    0.4898 C   0  0  2  0  0  0  0  0  0  0  0  0
   -5.3558   -1.4039    1.3507 C   0  0  1  0  0  0  0  0  0  0  0  0
   -4.2362   -1.1026    0.4959 O   0  0  0  0  0  0  0  0  0  0  0  0
   -5.6720   -0.2078    2.1144 N   0  0  0  0  0  0  0  0  0  0  0  0
   -5.1614    0.0527    3.3682 C   0  0  0  0  0  0  0  0  0  0  0  0
   -5.6523    1.2713    3.7673 C   0  0  0  0  0  0  0  0  0  0  0  0
   -6.4834    1.7894    2.7462 C   0  0  0  0  0  0  0  0  0  0  0  0
   -6.4730    0.8402    1.7270 C   0  0  0  0  0  0  0  0  0  0  0  0
   -7.1362    0.9253    0.5625 N   0  0  0  0  0  0  0  0  0  0  0  0
   -7.8334    2.0682    0.4625 C   0  0  0  0  0  0  0  0  0  0  0  0
   -7.9305    3.0593    1.3648 N   0  0  0  0  0  0  0  0  0  0  0  0
   -7.2562    2.9403    2.5256 C   0  0  0  0  0  0  0  0  0  0  0  0
   -7.3780    3.9726    3.4231 N   0  0  0  0  0  0  0  0  0  0  0  0
   -5.2696    2.1114    5.4013 Br  0  0  0  0  0  0  0  0  0  0  0  0
   -6.4908   -3.4588    0.6114 O   0  0  0  0  0  0  0  0  0  0  0  0
   -6.4961   -2.6384   -1.8705 O   0  0  0  0  0  0  0  0  0  0  0  0
    0.0914   -1.4520   -3.2138 H   0  0  0  0  0  0  0  0  0  0  0  0
   -1.2721   -1.4536   -4.3443 H   0  0  0  0  0  0  0  0  0  0  0  0
   -0.4968   -2.9722   -3.8887 H   0  0  0  0  0  0  0  0  0  0  0  0
   -2.6099   -2.7843   -2.7670 H   0  0  0  0  0  0  0  0  0  0  0  0
   -0.2590   -2.5307   -0.8325 H   0  0  0  0  0  0  0  0  0  0  0  0
   -0.9043   -3.9834   -1.5897 H   0  0  0  0  0  0  0  0  0  0  0  0
   -1.8700   -3.1261   -0.3911 H   0  0  0  0  0  0  0  0  0  0  0  0
   -2.3923    0.7299   -0.6057 H   0  0  0  0  0  0  0  0  0  0  0  0
   -1.7485   -0.7609    0.0529 H   0  0  0  0  0  0  0  0  0  0  0  0
    0.3518   -0.4060   -1.2794 H   0  0  0  0  0  0  0  0  0  0  0  0
   -0.3693    0.9983   -2.0585 H   0  0  0  0  0  0  0  0  0  0  0  0
    0.1071    0.7238    0.9625 H   0  0  0  0  0  0  0  0  0  0  0  0
   -0.5376    2.1562    0.1404 H   0  0  0  0  0  0  0  0  0  0  0  0
    1.5503    2.6702   -0.7007 H   0  0  0  0  0  0  0  0  0  0  0  0
    3.5996    2.6593   -0.6143 H   0  0  0  0  0  0  0  0  0  0  0  0
    4.6906   -0.5936    0.9024 H   0  0  0  0  0  0  0  0  0  0  0  0
    7.0012   -1.1774    1.1710 H   0  0  0  0  0  0  0  0  0  0  0  0
    8.1664    2.5947   -0.5923 H   0  0  0  0  0  0  0  0  0  0  0  0
    5.8252    3.1764   -0.8592 H   0  0  0  0  0  0  0  0  0  0  0  0
    9.5064    1.4227    2.3499 H   0  0  0  0  0  0  0  0  0  0  0  0
    9.9459    2.3719    0.9255 H   0  0  0  0  0  0  0  0  0  0  0  0
   11.0436    1.1295    1.5213 H   0  0  0  0  0  0  0  0  0  0  0  0
    9.4975   -0.4169   -1.5863 H   0  0  0  0  0  0  0  0  0  0  0  0
    9.9405    1.2840   -1.4024 H   0  0  0  0  0  0  0  0  0  0  0  0
   11.0383    0.0281   -0.8356 H   0  0  0  0  0  0  0  0  0  0  0  0
    9.1333   -1.8803    0.5163 H   0  0  0  0  0  0  0  0  0  0  0  0
    9.1366   -1.1286    2.1250 H   0  0  0  0  0  0  0  0  0  0  0  0
   10.6357   -1.2661    1.2062 H   0  0  0  0  0  0  0  0  0  0  0  0
   -4.2229   -1.2066   -2.8957 H   0  0  0  0  0  0  0  0  0  0  0  0
   -4.1803    0.1885   -1.8528 H   0  0  0  0  0  0  0  0  0  0  0  0
   -4.1305   -2.7008   -0.8107 H   0  0  0  0  0  0  0  0  0  0  0  0
   -6.3936   -0.6917   -1.2286 H   0  0  0  0  0  0  0  0  0  0  0  0
   -7.4859   -1.6743    0.7184 H   0  0  0  0  0  0  0  0  0  0  0  0
   -5.0088   -2.1507    2.0761 H   0  0  0  0  0  0  0  0  0  0  0  0
   -4.4860   -0.6392    3.8557 H   0  0  0  0  0  0  0  0  0  0  0  0
   -8.3900    2.2101   -0.4592 H   0  0  0  0  0  0  0  0  0  0  0  0
   -7.9558    4.7530    3.1491 H   0  0  0  0  0  0  0  0  0  0  0  0
   -6.8941    3.9620    4.3065 H   0  0  0  0  0  0  0  0  0  0  0  0
   -6.9166   -3.6706    1.4628 H   0  0  0  0  0  0  0  0  0  0  0  0
   -6.5560   -3.4808   -1.3727 H   0  0  0  0  0  0  0  0  0  0  0  0
  1  2  1  0
  2  3  1  0
  2  4  1  0
  4  5  1  0
  5  6  1  0
  6  7  1  0
  7  8  1  0
  8  9  1  0
  9 10  2  0
  9 11  1  0
 11 12  1  0
 12 13  1  0
 13 14  2  0
 14 15  1  0
 15 16  2  0
 16 17  1  0
 15 18  1  0
 18 19  1  0
 18 20  1  0
 18 21  1  0
  4 22  1  0
 22 23  1  0
 23 24  1  0
 24 25  1  0
 25 26  1  0
 26 27  1  0
 26 28  1  0
 28 29  1  0
 29 30  2  0
 30 31  1  0
 31 32  1  0
 32 33  2  0
 33 34  1  0
 34 35  2  0
 35 36  1  0
 36 37  1  0
 30 38  1  0
 25 39  1  0
 24 40  1  0
 17 12  2  0
 27 23  1  0
 32 28  1  0
 36 31  2  0
  1 41  1  0
  1 42  1  0
  1 43  1  0
  2 44  1  0
  3 45  1  0
  3 46  1  0
  3 47  1  0
  5 48  1  0
  5 49  1  0
  6 50  1  0
  6 51  1  0
  7 52  1  0
  7 53  1  0
  8 54  1  0
 11 55  1  0
 13 56  1  0
 14 57  1  0
 16 58  1  0
 17 59  1  0
 19 60  1  0
 19 61  1  0
 19 62  1  0
 20 63  1  0
 20 64  1  0
 20 65  1  0
 21 66  1  0
 21 67  1  0
 21 68  1  0
 22 69  1  0
 22 70  1  0
 23 71  1  1
 24 72  1  6
 25 73  1  1
 26 74  1  1
 29 75  1  0
 34 76  1  0
 37 77  1  0
 37 78  1  0
 39 79  1  0
 40 80  1  0
M  END
$$$$
