
     RDKit          3D

 69 73  0  0  0  0  0  0  0  0999 V2000
   -6.9145   -0.8661   -0.4348 C   0  0  0  0  0  0  0  0  0  0  0  0
   -5.9900   -1.7145   -1.0418 C   0  0  0  0  0  0  0  0  0  0  0  0
   -4.7659   -1.2144   -1.5007 C   0  0  0  0  0  0  0  0  0  0  0  0
   -4.4959    0.1579   -1.3518 C   0  0  0  0  0  0  0  0  0  0  0  0
   -5.4124    1.0295   -0.7390 C   0  0  0  0  0  0  0  0  0  0  0  0
   -6.6265    0.4921   -0.2839 C   0  0  0  0  0  0  0  0  0  0  0  0
   -5.1067    2.4611   -0.5784 C   0  0  0  0  0  0  0  0  0  0  0  0
   -4.7077    3.2439   -1.6758 C   0  0  0  0  0  0  0  0  0  0  0  0
   -4.4165    4.6035   -1.5251 C   0  0  0  0  0  0  0  0  0  0  0  0
   -4.5200    5.1973   -0.2707 C   0  0  0  0  0  0  0  0  0  0  0  0
   -4.9113    4.4444    0.8326 C   0  0  0  0  0  0  0  0  0  0  0  0
   -5.2025    3.0853    0.6777 C   0  0  0  0  0  0  0  0  0  0  0  0
   -4.1631    6.8697   -0.0827 Cl  0  0  0  0  0  0  0  0  0  0  0  0
   -3.7686   -2.1280   -2.1758 C   0  0  0  0  0  0  0  0  0  0  0  0
   -2.4026   -1.9963   -1.6603 N   0  0  0  0  0  0  0  0  0  0  0  0
   -2.2661   -2.5381   -0.3067 C   0  0  0  0  0  0  0  0  0  0  0  0
   -0.8364   -2.3491    0.2134 C   0  0  0  0  0  0  0  0  0  0  0  0
   -0.4660   -0.8726    0.4014 C   0  0  0  0  0  0  0  0  0  0  0  0
    0.9814   -0.6462    0.8405 C   0  0  0  0  0  0  0  0  0  0  0  0
    1.3046   -1.2121    2.5475 S   0  0  0  0  0  0  0  0  0  0  0  0
    2.2238   -2.7619    2.2230 C   0  0  0  0  0  0  0  0  0  0  0  0
    3.6999   -2.6184    1.8344 C   0  0  2  0  0  0  0  0  0  0  0  0
    4.5398   -1.6490    2.6609 C   0  0  2  0  0  0  0  0  0  0  0  0
    5.7490   -1.4486    1.7560 C   0  0  2  0  0  0  0  0  0  0  0  0
    5.1598   -1.5972    0.3454 C   0  0  1  0  0  0  0  0  0  0  0  0
    3.8518   -2.2075    0.4644 O   0  0  0  0  0  0  0  0  0  0  0  0
    5.0173   -0.3884   -0.4358 N   0  0  0  0  0  0  0  0  0  0  0  0
    5.2783   -0.2973   -1.7807 C   0  0  0  0  0  0  0  0  0  0  0  0
    5.0449    0.9092   -2.2513 N   0  0  0  0  0  0  0  0  0  0  0  0
    4.5967    1.6282   -1.1622 C   0  0  0  0  0  0  0  0  0  0  0  0
    4.5777    0.8384   -0.0226 C   0  0  0  0  0  0  0  0  0  0  0  0
    4.2058    1.2130    1.2115 N   0  0  0  0  0  0  0  0  0  0  0  0
    3.8167    2.5042    1.2297 C   0  0  0  0  0  0  0  0  0  0  0  0
    3.7827    3.3835    0.2067 N   0  0  0  0  0  0  0  0  0  0  0  0
    4.1760    2.9611   -1.0161 C   0  0  0  0  0  0  0  0  0  0  0  0
    4.1426    3.8572   -2.0593 N   0  0  0  0  0  0  0  0  0  0  0  0
    6.7013   -2.5021    2.0067 O   0  0  0  0  0  0  0  0  0  0  0  0
    4.9335   -2.1856    3.9230 O   0  0  0  0  0  0  0  0  0  0  0  0
   -7.8632   -1.2606   -0.0801 H   0  0  0  0  0  0  0  0  0  0  0  0
   -6.2312   -2.7690   -1.1520 H   0  0  0  0  0  0  0  0  0  0  0  0
   -3.5381    0.5424   -1.7019 H   0  0  0  0  0  0  0  0  0  0  0  0
   -7.3679    1.1365    0.1841 H   0  0  0  0  0  0  0  0  0  0  0  0
   -4.6297    2.7965   -2.6651 H   0  0  0  0  0  0  0  0  0  0  0  0
   -4.1118    5.1876   -2.3890 H   0  0  0  0  0  0  0  0  0  0  0  0
   -4.9884    4.9031    1.8144 H   0  0  0  0  0  0  0  0  0  0  0  0
   -5.4932    2.5074    1.5531 H   0  0  0  0  0  0  0  0  0  0  0  0
   -4.0913   -3.1749   -2.1166 H   0  0  0  0  0  0  0  0  0  0  0  0
   -3.7622   -1.8694   -3.2419 H   0  0  0  0  0  0  0  0  0  0  0  0
   -1.7703   -2.4967   -2.2831 H   0  0  0  0  0  0  0  0  0  0  0  0
   -2.9586   -2.0499    0.3883 H   0  0  0  0  0  0  0  0  0  0  0  0
   -2.4988   -3.6097   -0.3115 H   0  0  0  0  0  0  0  0  0  0  0  0
   -0.7582   -2.8764    1.1708 H   0  0  0  0  0  0  0  0  0  0  0  0
   -0.1250   -2.8272   -0.4716 H   0  0  0  0  0  0  0  0  0  0  0  0
   -0.6036   -0.3428   -0.5493 H   0  0  0  0  0  0  0  0  0  0  0  0
   -1.1549   -0.4039    1.1155 H   0  0  0  0  0  0  0  0  0  0  0  0
    1.1823    0.4303    0.8266 H   0  0  0  0  0  0  0  0  0  0  0  0
    1.6699   -1.1069    0.1292 H   0  0  0  0  0  0  0  0  0  0  0  0
    1.6854   -3.3326    1.4600 H   0  0  0  0  0  0  0  0  0  0  0  0
    2.1686   -3.3341    3.1556 H   0  0  0  0  0  0  0  0  0  0  0  0
    4.1355   -3.6254    1.9032 H   0  0  0  0  0  0  0  0  0  0  0  0
    4.0449   -0.6904    2.8238 H   0  0  0  0  0  0  0  0  0  0  0  0
    6.2752   -0.5072    1.9366 H   0  0  0  0  0  0  0  0  0  0  0  0
    5.7774   -2.2864   -0.2441 H   0  0  0  0  0  0  0  0  0  0  0  0
    5.6300   -1.1393   -2.3645 H   0  0  0  0  0  0  0  0  0  0  0  0
    3.4875    2.8880    2.1914 H   0  0  0  0  0  0  0  0  0  0  0  0
    4.4272    3.5522   -2.9788 H   0  0  0  0  0  0  0  0  0  0  0  0
    3.8199    4.7931   -1.8751 H   0  0  0  0  0  0  0  0  0  0  0  0
    6.6570   -2.6512    2.9760 H   0  0  0  0  0  0  0  0  0  0  0  0
    4.1745   -2.0693    4.5257 H   0  0  0  0  0  0  0  0  0  0  0  0
  1  2  1  0
  2  3  2  0
  3  4  1  0
  4  5  2  0
  5  6  1  0
  5  7  1  0
  7  8  1  0
  8  9  2  0
  9 10  1  0
 10 11  2  0
 11 12  1  0
 10 13  1  0
  3 14  1  0
 14 15  1  0
 15 16  1  0
 16 17  1  0
 17 18  1  0
 18 19  1  0
 19 20  1  0
 20 21  1  0
 21 22  1  0
 22 23  1  0
 23 24  1  0
 24 25  1  0
 25 26  1  0
 25 27  1  0
 27 28  1  0
 28 29  2  0
 29 30  1  0
 30 31  1  0
 31 32  2  0
 32 33  1  0
 33 34  2  0
 34 35  1  0
 35 36  1  0
 24 37  1  0
 23 38  1  0
  6  1  2  0
 12  7  2  0
 26 22  1  0
 31 27  1  0
 35 30  2  0
  1 39  1  0
  2 40  1  0
  4 41  1  0
  6 42  1  0
  8 43  1  0
  9 44  1  0
 11 45  1  0
 12 46  1  0
 14 47  1  0
 14 48  1  0
 15 49  1  0
 16 50  1  0
 16 51  1  0
 17 52  1  0
 17 53  1  0
 18 54  1  0
 18 55  1  0
 19 56  1  0
 19 57  1  0
 21 58  1  0
 21 59  1  0
 22 60  1  6
 23 61  1  1
 24 62  1  6
 25 63  1  6
 28 64  1  0
 33 65  1  0
 36 66  1  0
 36 67  1  0
 37 68  1  0
 38 69  1  0
M  END
$$$$
