
     RDKit          3D

 50 52  0  0  0  0  0  0  0  0999 V2000
    5.9409    0.7613    0.9373 C   0  0  0  0  0  0  0  0  0  0  0  0
    6.3346    1.7477    0.1038 N   0  0  0  0  0  0  0  0  0  0  0  0
    5.5611    2.0312   -0.9694 C   0  0  0  0  0  0  0  0  0  0  0  0
    4.3877    1.2838   -1.1651 C   0  0  0  0  0  0  0  0  0  0  0  0
    4.1115    0.3019   -0.2276 C   0  0  0  0  0  0  0  0  0  0  0  0
    4.8375   -0.0154    0.8593 N   0  0  0  0  0  0  0  0  0  0  0  0
    2.9348   -0.2639   -0.6416 N   0  0  0  0  0  0  0  0  0  0  0  0
    2.5604    0.3725   -1.7959 C   0  0  0  0  0  0  0  0  0  0  0  0
    3.4068    1.3233   -2.1348 N   0  0  0  0  0  0  0  0  0  0  0  0
    2.2500   -1.3607    0.0215 C   0  0  1  0  0  0  0  0  0  0  0  0
    1.8811   -1.0570    1.4785 C   0  0  1  0  0  0  0  0  0  0  0  0
    0.6740   -1.9645    1.6595 C   0  0  1  0  0  0  0  0  0  0  0  0
   -0.0388   -1.8147    0.3142 C   0  0  2  0  0  0  0  0  0  0  0  0
    1.0042   -1.6241   -0.6723 O   0  0  0  0  0  0  0  0  0  0  0  0
   -0.9860   -0.6068    0.2730 C   0  0  0  0  0  0  0  0  0  0  0  0
   -1.7678   -0.4900   -1.0486 C   0  0  2  0  0  0  0  0  0  0  0  0
   -2.5003    0.8629   -1.1713 C   0  0  0  0  0  0  0  0  0  0  0  0
   -3.5223    1.2262   -0.0822 C   0  0  0  0  0  0  0  0  0  0  0  0
   -4.7699    0.3371    0.0120 C   0  0  1  0  0  0  0  0  0  0  0  0
   -5.7202    0.8892    1.0891 C   0  0  0  0  0  0  0  0  0  0  0  0
   -5.4033    1.3758    2.1628 O   0  0  0  0  0  0  0  0  0  0  0  0
   -7.0287    0.7602    0.7674 O   0  0  0  0  0  0  0  0  0  0  0  0
   -5.4576    0.2523   -1.3028 N   0  0  0  0  0  0  0  0  0  0  0  0
   -2.6878   -1.6184   -1.1863 N   0  0  0  0  0  0  0  0  0  0  0  0
    1.1039   -3.3265    1.8050 O   0  0  0  0  0  0  0  0  0  0  0  0
    2.8990   -1.3122    2.4405 O   0  0  0  0  0  0  0  0  0  0  0  0
    5.9617    3.0375   -1.8173 N   0  0  0  0  0  0  0  0  0  0  0  0
    6.5977    0.5706    1.7821 H   0  0  0  0  0  0  0  0  0  0  0  0
    1.6681    0.1044   -2.3487 H   0  0  0  0  0  0  0  0  0  0  0  0
    2.8964   -2.2414   -0.0730 H   0  0  0  0  0  0  0  0  0  0  0  0
    1.5763   -0.0094    1.5915 H   0  0  0  0  0  0  0  0  0  0  0  0
    0.0686   -1.7063    2.5333 H   0  0  0  0  0  0  0  0  0  0  0  0
   -0.5699   -2.7367    0.0555 H   0  0  0  0  0  0  0  0  0  0  0  0
   -0.4075    0.3160    0.4051 H   0  0  0  0  0  0  0  0  0  0  0  0
   -1.6853   -0.6743    1.1158 H   0  0  0  0  0  0  0  0  0  0  0  0
   -1.0614   -0.5321   -1.8874 H   0  0  0  0  0  0  0  0  0  0  0  0
   -2.9800    0.9239   -2.1568 H   0  0  0  0  0  0  0  0  0  0  0  0
   -1.7370    1.6533   -1.1766 H   0  0  0  0  0  0  0  0  0  0  0  0
   -3.8421    2.2624   -0.2632 H   0  0  0  0  0  0  0  0  0  0  0  0
   -3.0187    1.2506    0.8921 H   0  0  0  0  0  0  0  0  0  0  0  0
   -4.5122   -0.6742    0.3392 H   0  0  0  0  0  0  0  0  0  0  0  0
   -7.4960    1.1243    1.5489 H   0  0  0  0  0  0  0  0  0  0  0  0
   -5.7245    1.1968   -1.5844 H   0  0  0  0  0  0  0  0  0  0  0  0
   -6.3535   -0.2158   -1.1332 H   0  0  0  0  0  0  0  0  0  0  0  0
   -3.4573   -1.3563   -1.8122 H   0  0  0  0  0  0  0  0  0  0  0  0
   -2.2123   -2.3908   -1.6542 H   0  0  0  0  0  0  0  0  0  0  0  0
    0.3398   -3.8434    2.1140 H   0  0  0  0  0  0  0  0  0  0  0  0
    3.7251   -0.9025    2.1085 H   0  0  0  0  0  0  0  0  0  0  0  0
    6.8210    3.5213   -1.6139 H   0  0  0  0  0  0  0  0  0  0  0  0
    5.3979    3.2512   -2.6274 H   0  0  0  0  0  0  0  0  0  0  0  0
  1  2  2  0
  2  3  1  0
  3  4  2  0
  4  5  1  0
  5  6  2  0
  5  7  1  0
  7  8  1  0
  8  9  2  0
  7 10  1  0
 10 11  1  0
 11 12  1  0
 12 13  1  0
 13 14  1  0
 13 15  1  0
 15 16  1  0
 16 17  1  0
 17 18  1  0
 18 19  1  0
 19 20  1  0
 20 21  2  0
 20 22  1  0
 19 23  1  0
 16 24  1  0
 12 25  1  0
 11 26  1  0
  3 27  1  0
  6  1  1  0
  9  4  1  0
 14 10  1  0
  1 28  1  0
  8 29  1  0
 10 30  1  1
 11 31  1  6
 12 32  1  1
 13 33  1  6
 15 34  1  0
 15 35  1  0
 16 36  1  6
 17 37  1  0
 17 38  1  0
 18 39  1  0
 18 40  1  0
 19 41  1  1
 22 42  1  0
 23 43  1  0
 23 44  1  0
 24 45  1  0
 24 46  1  0
 25 47  1  0
 26 48  1  0
 27 49  1  0
 27 50  1  0
M  END
$$$$
