
     RDKit          3D

 48 50  0  0  0  0  0  0  0  0999 V2000
    2.6297    0.9450    0.5724 C   0  0  0  0  0  0  0  0  0  0  0  0
    3.9523    1.1340    0.9205 C   0  0  0  0  0  0  0  0  0  0  0  0
    4.7020    0.0375    0.4161 C   0  0  0  0  0  0  0  0  0  0  0  0
    6.0445   -0.3713    0.4191 C   0  0  0  0  0  0  0  0  0  0  0  0
    6.3700   -1.5262   -0.1952 N   0  0  0  0  0  0  0  0  0  0  0  0
    5.3921   -2.2403   -0.7836 C   0  0  0  0  0  0  0  0  0  0  0  0
    4.0818   -1.9554   -0.8444 N   0  0  0  0  0  0  0  0  0  0  0  0
    3.7965   -0.7968   -0.2285 C   0  0  0  0  0  0  0  0  0  0  0  0
    2.5460   -0.2341   -0.1321 N   0  0  0  0  0  0  0  0  0  0  0  0
    1.3430   -0.8176   -0.7104 C   0  0  0  0  0  0  0  0  0  0  0  0
    1.0262   -0.2844   -2.1097 C   0  0  0  0  0  0  0  0  0  0  0  0
   -0.4826   -0.4602   -2.1513 C   0  0  0  0  0  0  0  0  0  0  0  0
   -0.8986   -0.1096   -0.7206 C   0  0  0  0  0  0  0  0  0  0  0  0
    0.2081   -0.4871    0.1267 O   0  0  0  0  0  0  0  0  0  0  0  0
   -1.1988    1.3905   -0.5768 C   0  0  0  0  0  0  0  0  0  0  0  0
   -1.5457    1.9830    1.1210 S   0  0  0  0  0  0  0  0  0  0  0  0
   -2.8371    0.8198    1.6847 C   0  0  0  0  0  0  0  0  0  0  0  0
   -4.1029    0.8636    0.8309 C   0  0  0  0  0  0  0  0  0  0  0  0
   -5.1753   -0.1234    1.3195 C   0  0  0  0  0  0  0  0  0  0  0  0
   -6.3608   -0.2025    0.3432 C   0  0  0  0  0  0  0  0  0  0  0  0
   -7.5440   -0.2610    0.6447 O   0  0  0  0  0  0  0  0  0  0  0  0
   -5.9946   -0.3113   -0.9506 O   0  0  0  0  0  0  0  0  0  0  0  0
   -5.6643    0.2698    2.6556 N   0  0  0  0  0  0  0  0  0  0  0  0
   -0.7545   -1.8446   -2.4350 O   0  0  0  0  0  0  0  0  0  0  0  0
    1.6492   -0.9933   -3.1751 O   0  0  0  0  0  0  0  0  0  0  0  0
    7.0676    0.3289    1.0095 N   0  0  0  0  0  0  0  0  0  0  0  0
    4.4596    2.2432    1.6614 C   0  0  0  0  0  0  0  0  0  0  0  0
    4.9122    3.1307    2.2566 N   0  0  0  0  0  0  0  0  0  0  0  0
    1.7487    1.5410    0.7775 H   0  0  0  0  0  0  0  0  0  0  0  0
    5.7034   -3.1611   -1.2675 H   0  0  0  0  0  0  0  0  0  0  0  0
    1.4581   -1.9077   -0.6973 H   0  0  0  0  0  0  0  0  0  0  0  0
    1.2919    0.7750   -2.2000 H   0  0  0  0  0  0  0  0  0  0  0  0
   -0.9667    0.1364   -2.9299 H   0  0  0  0  0  0  0  0  0  0  0  0
   -1.7632   -0.7101   -0.4215 H   0  0  0  0  0  0  0  0  0  0  0  0
   -2.0358    1.6759   -1.2223 H   0  0  0  0  0  0  0  0  0  0  0  0
   -0.3331    1.9750   -0.9064 H   0  0  0  0  0  0  0  0  0  0  0  0
   -2.4192   -0.1909    1.7238 H   0  0  0  0  0  0  0  0  0  0  0  0
   -3.0693    1.1033    2.7163 H   0  0  0  0  0  0  0  0  0  0  0  0
   -3.8494    0.6240   -0.2073 H   0  0  0  0  0  0  0  0  0  0  0  0
   -4.5168    1.8810    0.8178 H   0  0  0  0  0  0  0  0  0  0  0  0
   -4.7644   -1.1384    1.3815 H   0  0  0  0  0  0  0  0  0  0  0  0
   -6.8551   -0.3721   -1.4197 H   0  0  0  0  0  0  0  0  0  0  0  0
   -6.5844   -0.1554    2.8064 H   0  0  0  0  0  0  0  0  0  0  0  0
   -5.0560   -0.1083    3.3798 H   0  0  0  0  0  0  0  0  0  0  0  0
   -1.7213   -1.9506   -2.5006 H   0  0  0  0  0  0  0  0  0  0  0  0
    1.1845   -1.8537   -3.2321 H   0  0  0  0  0  0  0  0  0  0  0  0
    6.9378    1.2013    1.4963 H   0  0  0  0  0  0  0  0  0  0  0  0
    7.9887   -0.0791    0.9366 H   0  0  0  0  0  0  0  0  0  0  0  0
  1  2  2  0
  2  3  1  0
  3  4  2  0
  4  5  1  0
  5  6  2  0
  6  7  1  0
  7  8  2  0
  8  9  1  0
  9 10  1  0
 10 11  1  0
 11 12  1  0
 12 13  1  0
 13 14  1  0
 13 15  1  0
 15 16  1  0
 16 17  1  0
 17 18  1  0
 18 19  1  0
 19 20  1  0
 20 21  2  0
 20 22  1  0
 19 23  1  0
 12 24  1  0
 11 25  1  0
  4 26  1  0
  2 27  1  0
 27 28  3  0
  9  1  1  0
  8  3  1  0
 14 10  1  0
  1 29  1  0
  6 30  1  0
 10 31  1  0
 11 32  1  0
 12 33  1  0
 13 34  1  0
 15 35  1  0
 15 36  1  0
 17 37  1  0
 17 38  1  0
 18 39  1  0
 18 40  1  0
 19 41  1  0
 22 42  1  0
 23 43  1  0
 23 44  1  0
 24 45  1  0
 25 46  1  0
 26 47  1  0
 26 48  1  0
M  END
$$$$
