
     RDKit          3D

 69 73  0  0  0  0  0  0  0  0999 V2000
   -3.0494   -4.2932    1.3568 C   0  0  0  0  0  0  0  0  0  0  0  0
   -3.8249   -3.1496    0.7223 C   0  0  0  0  0  0  0  0  0  0  0  0
   -3.4010   -1.8508    1.3050 N   0  0  0  0  0  0  0  0  0  0  0  0
   -2.0537   -1.3865    0.8625 C   0  0  0  0  0  0  0  0  0  0  0  0
   -1.0441   -1.4082    2.0196 C   0  0  2  0  0  0  0  0  0  0  0  0
   -0.9347   -0.0871    2.7816 C   0  0  2  0  0  0  0  0  0  0  0  0
    0.4900   -0.1293    3.3101 C   0  0  2  0  0  0  0  0  0  0  0  0
    1.2338   -0.9658    2.2692 C   0  0  1  0  0  0  0  0  0  0  0  0
    0.2645   -1.6757    1.4710 O   0  0  0  0  0  0  0  0  0  0  0  0
    2.1088   -0.2078    1.3845 N   0  0  0  0  0  0  0  0  0  0  0  0
    3.4779   -0.3531    1.3488 C   0  0  0  0  0  0  0  0  0  0  0  0
    3.9719    0.5102    0.3963 C   0  0  0  0  0  0  0  0  0  0  0  0
    2.8744    1.2146   -0.1708 C   0  0  0  0  0  0  0  0  0  0  0  0
    1.7293    0.7456    0.4682 C   0  0  0  0  0  0  0  0  0  0  0  0
    0.4694    1.1552    0.2356 N   0  0  0  0  0  0  0  0  0  0  0  0
    0.4210    2.1000   -0.7173 C   0  0  0  0  0  0  0  0  0  0  0  0
    1.4388    2.6347   -1.4119 N   0  0  0  0  0  0  0  0  0  0  0  0
    2.6889    2.2023   -1.1521 C   0  0  0  0  0  0  0  0  0  0  0  0
    3.7055    2.7733   -1.8781 N   0  0  0  0  0  0  0  0  0  0  0  0
    5.3559    0.6334    0.0781 C   0  0  0  0  0  0  0  0  0  0  0  0
    6.5208    0.7403   -0.1941 C   0  0  0  0  0  0  0  0  0  0  0  0
    7.9042    0.8706   -0.5227 C   0  0  0  0  0  0  0  0  0  0  0  0
    8.4844    0.0721   -1.5054 C   0  0  0  0  0  0  0  0  0  0  0  0
    9.8366    0.2291   -1.8032 C   0  0  0  0  0  0  0  0  0  0  0  0
   10.5586    1.1839   -1.1038 C   0  0  0  0  0  0  0  0  0  0  0  0
   10.0266    1.9746   -0.1463 N   0  0  0  0  0  0  0  0  0  0  0  0
    8.7106    1.7983    0.1237 C   0  0  0  0  0  0  0  0  0  0  0  0
    0.5029   -0.7981    4.5863 O   0  0  0  0  0  0  0  0  0  0  0  0
   -1.8466    0.0266    3.8738 O   0  0  0  0  0  0  0  0  0  0  0  0
   -4.5968   -0.6673    1.5243 S   0  0  0  0  0  0  0  0  0  0  0  0
   -5.7864   -1.2959    2.0523 O   0  0  0  0  0  0  0  0  0  0  0  0
   -3.9711    0.4420    2.2173 O   0  0  0  0  0  0  0  0  0  0  0  0
   -4.9681   -0.1352   -0.1334 C   0  0  0  0  0  0  0  0  0  0  0  0
   -4.3848    1.0273   -0.6411 C   0  0  0  0  0  0  0  0  0  0  0  0
   -4.7012    1.4572   -1.9339 C   0  0  0  0  0  0  0  0  0  0  0  0
   -5.6113    0.7386   -2.7193 C   0  0  0  0  0  0  0  0  0  0  0  0
   -6.2138   -0.4170   -2.1891 C   0  0  0  0  0  0  0  0  0  0  0  0
   -5.8989   -0.8477   -0.8925 C   0  0  0  0  0  0  0  0  0  0  0  0
   -7.1586   -1.1799   -2.9562 C   0  0  0  0  0  0  0  0  0  0  0  0
   -7.9183   -1.8346   -3.5411 N   0  0  0  0  0  0  0  0  0  0  0  0
   -5.9747    1.0811   -3.9947 O   0  0  0  0  0  0  0  0  0  0  0  0
   -5.4078    2.2594   -4.5552 C   0  0  0  0  0  0  0  0  0  0  0  0
   -1.9796   -4.2270    1.1358 H   0  0  0  0  0  0  0  0  0  0  0  0
   -3.1689   -4.2908    2.4453 H   0  0  0  0  0  0  0  0  0  0  0  0
   -3.4108   -5.2531    0.9746 H   0  0  0  0  0  0  0  0  0  0  0  0
   -4.8885   -3.3286    0.9073 H   0  0  0  0  0  0  0  0  0  0  0  0
   -3.6791   -3.1432   -0.3634 H   0  0  0  0  0  0  0  0  0  0  0  0
   -2.1023   -0.3896    0.4143 H   0  0  0  0  0  0  0  0  0  0  0  0
   -1.6946   -2.0300    0.0491 H   0  0  0  0  0  0  0  0  0  0  0  0
   -1.2790   -2.2286    2.7093 H   0  0  0  0  0  0  0  0  0  0  0  0
   -1.0676    0.7777    2.1269 H   0  0  0  0  0  0  0  0  0  0  0  0
    0.9126    0.8667    3.4736 H   0  0  0  0  0  0  0  0  0  0  0  0
    1.8547   -1.7264    2.7577 H   0  0  0  0  0  0  0  0  0  0  0  0
    3.9834   -1.0583    1.9974 H   0  0  0  0  0  0  0  0  0  0  0  0
   -0.5651    2.4841   -0.9589 H   0  0  0  0  0  0  0  0  0  0  0  0
    4.6678    2.5112   -1.7432 H   0  0  0  0  0  0  0  0  0  0  0  0
    3.4472    3.4792   -2.5509 H   0  0  0  0  0  0  0  0  0  0  0  0
    7.8956   -0.6696   -2.0385 H   0  0  0  0  0  0  0  0  0  0  0  0
   10.3160   -0.3791   -2.5622 H   0  0  0  0  0  0  0  0  0  0  0  0
   11.6153    1.3425   -1.3009 H   0  0  0  0  0  0  0  0  0  0  0  0
    8.3149    2.4479    0.9000 H   0  0  0  0  0  0  0  0  0  0  0  0
   -0.3590   -0.5627    4.9959 H   0  0  0  0  0  0  0  0  0  0  0  0
   -2.7210    0.2539    3.4836 H   0  0  0  0  0  0  0  0  0  0  0  0
   -3.6886    1.6098   -0.0402 H   0  0  0  0  0  0  0  0  0  0  0  0
   -4.2243    2.3630   -2.2970 H   0  0  0  0  0  0  0  0  0  0  0  0
   -6.3854   -1.7303   -0.4786 H   0  0  0  0  0  0  0  0  0  0  0  0
   -5.8142    2.3784   -5.5641 H   0  0  0  0  0  0  0  0  0  0  0  0
   -4.3201    2.1697   -4.6423 H   0  0  0  0  0  0  0  0  0  0  0  0
   -5.6878    3.1454   -3.9761 H   0  0  0  0  0  0  0  0  0  0  0  0
  1  2  1  0
  2  3  1  0
  3  4  1  0
  4  5  1  0
  5  6  1  0
  6  7  1  0
  7  8  1  0
  8  9  1  0
  8 10  1  0
 10 11  1  0
 11 12  2  0
 12 13  1  0
 13 14  1  0
 14 15  2  0
 15 16  1  0
 16 17  2  0
 17 18  1  0
 18 19  1  0
 12 20  1  0
 20 21  3  0
 21 22  1  0
 22 23  1  0
 23 24  2  0
 24 25  1  0
 25 26  2  0
 26 27  1  0
  7 28  1  0
  6 29  1  0
  3 30  1  0
 30 31  2  0
 30 32  2  0
 30 33  1  0
 33 34  1  0
 34 35  2  0
 35 36  1  0
 36 37  2  0
 37 38  1  0
 37 39  1  0
 39 40  3  0
 36 41  1  0
 41 42  1  0
  9  5  1  0
 14 10  1  0
 18 13  2  0
 27 22  2  0
 38 33  2  0
  1 43  1  0
  1 44  1  0
  1 45  1  0
  2 46  1  0
  2 47  1  0
  4 48  1  0
  4 49  1  0
  5 50  1  1
  6 51  1  6
  7 52  1  1
  8 53  1  1
 11 54  1  0
 16 55  1  0
 19 56  1  0
 19 57  1  0
 23 58  1  0
 24 59  1  0
 25 60  1  0
 27 61  1  0
 28 62  1  0
 29 63  1  0
 34 64  1  0
 35 65  1  0
 38 66  1  0
 42 67  1  0
 42 68  1  0
 42 69  1  0
M  END
$$$$
